<?xml version="1.0" encoding="UTF-8"?>

<!-- generated on 03/15/20 12:52:33 by Eclipse SUMO polyconvert Version 1.4.0
<configuration xmlns:xsi="http://www.w3.org/2001/XMLSchema-instance" xsi:noNamespaceSchemaLocation="http://sumo.dlr.de/xsd/polyconvertConfiguration.xsd">

    <input>
        <net-file value="osm.net.xml"/>
        <osm-files value="osm_bbox.osm.xml"/>
        <osm.keep-full-type value="true"/>
        <type-file value="C:\Program%20Files%20(x86)\Eclipse\Sumo\data\typemap\osmPolyconvert.typ.xml"/>
    </input>

    <output>
        <output-file value="osm.poly.xml"/>
    </output>

    <processing>
        <poi-layer-offset value="5"/>
    </processing>

    <report>
        <verbose value="true"/>
    </report>

</configuration>
-->

<additional xmlns:xsi="http://www.w3.org/2001/XMLSchema-instance" xsi:noNamespaceSchemaLocation="http://sumo.dlr.de/xsd/additional_file.xsd">
    <location netOffset="-249379.05,-2560746.06" convBoundary="-15351.18,-6785.75,28456.44,53237.37" origBoundary="72.401495,23.076038,72.830184,23.614817" projParameter="+proj=utm +zone=43 +ellps=WGS84 +datum=WGS84 +units=m +no_defs"/>

    <poly id="141607162" type="natural.water" color="181,209,209" fill="1" layer="-4.00" shape="7398.200978,10060.914610 7419.759835,10058.678109 7427.309620,10051.363691 7429.250110,10036.041711 7425.074646,10031.179517 7412.267008,10021.306489 7357.389729,9941.089172 7349.270445,9920.502749 7332.612162,9904.355137 7326.596706,9900.941316 7310.439121,9891.610728 7297.253799,9891.826652 7282.176019,9898.411271 7276.898212,9906.275783 7273.854625,9914.258824 7264.727256,9914.031601 7253.684394,9914.389753 7242.878955,9925.491508 7234.293106,9938.318614 7224.575050,9955.164112 7211.384070,9980.032951 7210.025086,9993.960470 7217.769766,10004.171121 7228.055001,10010.074401 7398.200978,10060.914610"/>
    <poly id="164775730" type="waterway.river" color="181,209,209" fill="0" layer="-4.00" shape="28413.986759,40914.376650 28432.206105,40576.853347 28456.435048,40128.075514 28233.116048,39892.160282 27863.974995,39817.020751 27427.721166,39989.668849 26538.042611,40559.427674 26065.832838,40508.887242 25818.795417,40402.426781 25683.369480,39979.018380 25755.505283,39435.212502 26166.364221,38954.268378 27344.039586,37766.414958 27746.744443,36340.979063 27202.028498,34494.808427 27000.500138,33939.294509 26917.911390,33711.653251 26500.899673,33127.849193 26100.105896,32639.549383 25643.652603,32314.369167 25313.420399,31994.336458 25215.459514,31605.651580 25228.087219,31159.779573 25442.291908,30684.422921 25674.231782,30444.755717 26094.419651,30056.968424 26121.030451,29694.520939 25927.708188,29361.007287 25703.001663,29198.609409 24926.088951,29329.077783 24766.383354,29525.039056 24145.252534,29955.228822 23632.809449,30411.891050 23362.145717,30571.857725 23129.901673,30588.362042 22836.262345,30471.431678 22441.791245,30123.321006 21962.007033,29678.493863 21468.149677,29564.686239 21107.867085,29529.789888 20541.256003,29538.628477 20023.004899,29511.976420 19477.510001,29443.635545 19105.255895,29237.944893 18743.451556,29056.948980 18314.895263,28675.602807 18035.629490,28281.928055 17941.331432,27908.636497 17938.950675,27541.361845 18196.469321,26868.432987 18598.571018,26544.637100 18881.709341,26300.731030 19048.313255,26044.500829 19054.188706,25827.145554 18779.002058,25410.766997 18589.573931,25208.279888 17959.431741,24915.314937 17737.630314,24787.921984 17591.444962,24644.901881 17543.350587,24416.275482 17501.850278,24045.586124 17508.662191,23724.766531 17547.383124,23488.975569 17749.084077,22426.850116 16989.431588,21013.224064 15962.710803,19128.432738 15567.336467,17450.712283 15526.959058,15767.172687 15268.206516,14956.283751 14643.891199,14354.925896 14273.514313,14176.840000 13722.505764,13975.676388 13582.365251,13791.636797 13441.309858,13478.238106 13392.162636,13018.550969 13534.997522,12318.574070 13776.862508,11137.238333 13871.942099,10624.430958 13933.654758,9909.415491 13858.319483,9307.577155 13750.117750,9030.068105 13464.460154,8505.283672 11663.284498,7180.486828 11131.968233,5890.222427 10897.483765,5134.694683 10953.530436,4412.892389 11067.298790,3840.722544 11391.558158,3396.554284 12133.738589,2654.069521 12560.395965,2128.125234 12686.008943,1812.474677 12712.604401,1311.585477 12638.670477,911.936811 12518.040876,686.713242 12196.509685,469.973450 11885.095139,408.399685 11355.101637,522.654223 10975.472977,587.867599 10543.396045,554.917517 9988.347680,289.098765 9688.269843,-47.109322 9531.238066,-455.912815 9561.299832,-820.228702 9583.949742,-1094.768886 9762.716071,-2093.791793"/>
    <poly id="244342863" type="landuse.forest" color="140,196,107" fill="1" layer="-3.00" shape="9336.724937,6248.826331 9337.118930,6464.518892 9579.974112,6525.066492 10125.159614,6710.038294 10463.004048,6868.049410 10609.963551,6761.563095 10494.858384,6399.888304 10923.688586,6262.634707 10952.317175,6254.506564 10823.036920,5917.887455 10897.195016,5901.624661 10795.697434,5604.311498 10729.049557,5396.458417 10705.107516,5269.662135 10409.558956,5242.009012 9862.112052,5349.526942 9842.899093,5905.004041 9337.323053,5849.804755 9294.167182,5845.097535 9336.724937,6248.826331"/>
    <poly id="262316357" type="building.commercial" color="255,230,230" fill="1" layer="-1.00" shape="8222.037745,6515.382641 8219.812582,6498.245269 8248.021537,6494.616949 8245.492111,6475.146704 8217.395751,6478.773190 8215.182445,6461.735342 8328.314635,6447.162164 8335.292034,6500.785324 8222.037745,6515.382641"/>
    <poly id="29349715" type="natural.water" color="181,209,209" fill="1" layer="-4.00" shape="9648.940967,-3098.486430 9653.809286,-2989.165849 9649.235332,-2727.571236 9629.078744,-2177.989926 9577.730731,-1653.287810 9527.286313,-1291.280365 9453.391861,-1019.856654 9414.757287,-828.520025 9394.757759,-729.444706 9366.924064,-438.654802 9373.245314,-210.517826 9427.079638,-35.610634 9496.343573,114.550385 9602.822014,227.381664 9755.185026,349.976130 9986.914948,486.138126 10274.240466,629.019100 10476.100981,709.595718 10848.270823,717.934798 11128.233152,710.047146 11558.631450,722.488112 11856.725157,786.793878 12120.488462,889.911282 12257.548569,971.657662 12382.019480,1146.019157 12410.155146,1293.667520 12441.544098,1431.425475 12453.596342,1615.128172 12459.857303,1864.712644 12336.513674,2124.611208 12213.514058,2351.278731 12076.400075,2519.596806 11925.735499,2669.974341 11735.081027,2838.932273 11594.511142,2961.054614 11432.363985,3152.405851 11313.436947,3247.870307 11161.792752,3440.895755 10987.584527,3728.749940 10871.948343,4005.947395 10766.951591,4255.918745 10704.012757,4497.336131 10687.973527,4702.156021 10671.441279,4985.659808 10688.134667,5148.858387 10705.107516,5269.662135 10729.049557,5396.458417 10795.697434,5604.311498 11170.931544,5475.210596 11121.318077,5319.942673 11062.532803,5074.047943 11081.867282,4776.462505 11073.912946,4487.005368 11111.011343,4228.245241 11237.993268,3950.668082 11426.200167,3714.765422 11610.625837,3509.694114 11798.144787,3333.039147 12009.466484,3107.854733 12237.032917,2850.727115 12482.294168,2613.153210 12626.824291,2420.844799 12784.649888,2210.189208 12872.669502,2000.637739 12967.671859,1782.289612 12977.141090,1603.772707 12924.885330,1359.785836 12886.754455,1174.150256 12818.439906,805.367245 12739.014333,622.140750 12606.122958,395.162019 12530.678521,296.673949 12392.040629,206.197158 12199.272612,140.196438 12046.142951,133.027187 11883.025447,161.872174 11731.298886,242.997563 11565.842075,344.453789 11324.158284,409.542050 11140.806269,436.969616 10955.889501,422.455648 10679.745796,367.430670 10440.442674,306.565797 10233.833452,200.593822 10059.561203,82.724368 9973.484108,25.036288 9913.580702,-25.982687 9762.459487,-180.075997 9685.641846,-308.256165 9627.060686,-449.848720 9595.655132,-652.230303 9608.334341,-847.457215 9654.139152,-1060.702264 9763.605838,-1253.989491 9819.092028,-1630.945588 9936.253849,-1946.805522 9970.598646,-2009.470662 9987.781050,-2040.825509 10008.975610,-2079.490956 10024.266747,-2107.391709 10053.909995,-2396.489936 10058.399899,-2554.865962 10064.487100,-2722.895735 10066.002237,-2847.110052 10047.704976,-3000.753763 10050.575691,-3103.163300 9648.940967,-3098.486430"/>
    <poly id="29349855" type="natural.water" color="181,209,209" fill="1" layer="-4.00" shape="11245.531279,5967.747025 11344.883663,6183.917123 11438.562446,6296.408206 11513.117767,6385.917918 11623.940081,6586.482323 11671.984006,6670.668220 11709.488827,6748.475478 11722.016953,6747.365790 11736.845262,6769.596897 11837.435503,6972.996838 11985.072410,7134.947507 12130.664892,7279.448725 12304.827717,7451.468914 12519.538564,7628.480981 12543.675894,7645.721954 12653.128672,7722.401498 12922.198813,7910.924508 13162.358113,8088.878309 13363.084668,8274.455708 13523.039414,8438.825907 13715.829216,8623.658506 13835.247740,8781.686363 13928.640187,8961.966760 14029.156779,9203.314280 14095.842855,9417.236373 14124.831038,9581.945840 14121.825506,9724.429714 14107.398122,9977.213076 14097.384636,10176.612460 14085.523791,10369.914459 14034.336530,10632.003136 14009.349362,10829.015616 13955.876347,11057.936544 13883.300172,11356.175943 13844.051643,11561.925589 13778.871564,11780.498113 13760.231213,11826.243212 13749.452994,11852.695528 13705.800159,11994.565931 13618.085264,12192.226910 13603.676816,12445.843324 13522.426225,12969.613903 13512.383490,13188.050386 13510.689821,13224.916591 13543.163880,13387.775033 13613.580024,13505.465759 13715.198815,13651.498112 13803.984294,13764.519756 13935.868289,13880.366166 14092.999058,13981.817606 14367.460573,14113.730599 14667.092728,14226.024971 14867.145462,14319.809786 14970.543459,14413.393286 15110.991746,14571.900985 15256.156182,14750.421691 15387.617447,14951.884609 15472.532904,15099.044614 15084.185718,15096.468303 14978.191559,14894.614013 14878.228552,14740.704429 14725.325648,14572.791135 14558.886821,14438.288385 14338.858026,14303.754643 14166.213809,14220.895922 13853.587160,14120.175109 13672.268529,14044.440178 13489.173830,13967.871474 13374.760709,13845.644490 13284.336827,13630.421115 13231.787345,13476.625888 13215.219341,13264.586323 13225.134689,13060.864723 13212.515718,12942.073234 13313.317403,12640.950008 13383.102340,12444.127003 13375.798585,12217.768966 13401.289070,12140.813742 13403.216873,12053.244336 13461.457369,11829.451061 13454.946874,11684.669446 13500.910821,11515.129233 13591.132037,11096.471385 13635.010035,10869.097656 13686.972293,10537.360397 13754.499707,10278.743161 13777.192346,9752.255071 13746.124217,9560.722644 13605.466674,9217.388557 13517.214405,9061.668435 13432.027330,8934.506738 13317.159292,8714.087542 13204.330238,8561.265025 12981.151232,8361.169098 12801.911066,8209.266606 12575.820921,8028.223531 12350.318451,7902.105879 12151.259945,7763.601373 11907.631673,7589.540242 11719.550582,7416.440520 11592.434742,7316.207865 11381.049289,7105.018130 11318.369764,6976.905548 11310.080818,6946.758550 11320.672715,6941.801819 11096.284519,6364.324544 11012.948588,6211.815754 10897.195016,5901.624661 10795.697434,5604.311498 11170.931544,5475.210596 11191.497852,5735.613959 11245.531279,5967.747025"/>
    <poly id="29349855#1" type="waterway.riverbank" color="181,209,209" fill="1" layer="-4.00" shape="11245.531279,5967.747025 11344.883663,6183.917123 11438.562446,6296.408206 11513.117767,6385.917918 11623.940081,6586.482323 11671.984006,6670.668220 11709.488827,6748.475478 11722.016953,6747.365790 11736.845262,6769.596897 11837.435503,6972.996838 11985.072410,7134.947507 12130.664892,7279.448725 12304.827717,7451.468914 12519.538564,7628.480981 12543.675894,7645.721954 12653.128672,7722.401498 12922.198813,7910.924508 13162.358113,8088.878309 13363.084668,8274.455708 13523.039414,8438.825907 13715.829216,8623.658506 13835.247740,8781.686363 13928.640187,8961.966760 14029.156779,9203.314280 14095.842855,9417.236373 14124.831038,9581.945840 14121.825506,9724.429714 14107.398122,9977.213076 14097.384636,10176.612460 14085.523791,10369.914459 14034.336530,10632.003136 14009.349362,10829.015616 13955.876347,11057.936544 13883.300172,11356.175943 13844.051643,11561.925589 13778.871564,11780.498113 13760.231213,11826.243212 13749.452994,11852.695528 13705.800159,11994.565931 13618.085264,12192.226910 13603.676816,12445.843324 13522.426225,12969.613903 13512.383490,13188.050386 13510.689821,13224.916591 13543.163880,13387.775033 13613.580024,13505.465759 13715.198815,13651.498112 13803.984294,13764.519756 13935.868289,13880.366166 14092.999058,13981.817606 14367.460573,14113.730599 14667.092728,14226.024971 14867.145462,14319.809786 14970.543459,14413.393286 15110.991746,14571.900985 15256.156182,14750.421691 15387.617447,14951.884609 15472.532904,15099.044614 15084.185718,15096.468303 14978.191559,14894.614013 14878.228552,14740.704429 14725.325648,14572.791135 14558.886821,14438.288385 14338.858026,14303.754643 14166.213809,14220.895922 13853.587160,14120.175109 13672.268529,14044.440178 13489.173830,13967.871474 13374.760709,13845.644490 13284.336827,13630.421115 13231.787345,13476.625888 13215.219341,13264.586323 13225.134689,13060.864723 13212.515718,12942.073234 13313.317403,12640.950008 13383.102340,12444.127003 13375.798585,12217.768966 13401.289070,12140.813742 13403.216873,12053.244336 13461.457369,11829.451061 13454.946874,11684.669446 13500.910821,11515.129233 13591.132037,11096.471385 13635.010035,10869.097656 13686.972293,10537.360397 13754.499707,10278.743161 13777.192346,9752.255071 13746.124217,9560.722644 13605.466674,9217.388557 13517.214405,9061.668435 13432.027330,8934.506738 13317.159292,8714.087542 13204.330238,8561.265025 12981.151232,8361.169098 12801.911066,8209.266606 12575.820921,8028.223531 12350.318451,7902.105879 12151.259945,7763.601373 11907.631673,7589.540242 11719.550582,7416.440520 11592.434742,7316.207865 11381.049289,7105.018130 11318.369764,6976.905548 11310.080818,6946.758550 11320.672715,6941.801819 11096.284519,6364.324544 11012.948588,6211.815754 10897.195016,5901.624661 10795.697434,5604.311498 11170.931544,5475.210596 11191.497852,5735.613959 11245.531279,5967.747025"/>
    <poly id="29384525" type="waterway.drain" color="181,209,209" fill="0" layer="-4.00" shape="4097.361084,11548.524707 4675.604801,11441.064469 4736.857571,11425.191595 4797.936964,11398.840088 5255.954680,11142.218070 5309.743799,11100.255680 5341.590843,11059.542309 5366.304505,11012.819565 5515.725193,10428.341028 5591.737767,10134.330832 5797.060950,9367.124470 5817.128434,9304.745986 5848.664317,9244.793546 5985.474881,9012.687061 6487.521095,8220.461727 6583.489181,8069.429463 6609.901848,8018.305454 6626.735613,7972.579475 6670.222237,7837.267423 6824.334371,7318.173977 6963.588051,6857.872903 7086.381955,6465.131567 7212.377139,6052.229875 7439.483301,5316.851265 7603.209779,4790.536117 7670.714209,4579.650185 7730.364912,4393.312695 7776.289337,4243.950991 7870.076800,3849.002429 7903.591996,3735.653470 7954.244865,3564.366564 8085.001864,3116.356174 8239.856975,2582.254625 8251.282752,2544.630530 8298.279064,2389.825450 8305.670480,2357.352597 8308.501506,2315.336710 8304.249494,2269.934776 8294.812032,2230.744202 8277.335655,2182.942434 8127.979043,1812.893768 7960.838937,1376.668198 7917.655450,1262.817829 7903.761434,1219.323417 7897.717993,1172.200060 7894.946164,1110.165574 7891.941986,925.560101 7891.105085,874.130657 7888.715238,727.263775 7891.602923,688.748067 7906.788753,649.145891 8102.196328,281.324517 8136.506118,227.418238 8440.044640,-252.352129 8526.764853,-382.305109 8560.328396,-427.456114 8588.043508,-454.142153 8622.842930,-477.441835 8670.055185,-494.815619 8754.144631,-515.423833 8796.976385,-531.861991 8816.090838,-546.154141 8844.588377,-578.979329 8857.390277,-602.797338 8873.274220,-599.553454 8900.063576,-574.626110 8912.617772,-559.960590 8935.401608,-564.705979 9048.244623,-602.386328 9074.297821,-622.928505 9086.229356,-646.732190 9104.580172,-708.243845 9120.082245,-728.604110 9156.871197,-737.952144 9191.629801,-763.864452 9213.133192,-793.949817 9244.378047,-819.816231 9322.436400,-833.321158 9414.757287,-828.520025 9561.299832,-820.228702"/>
    <poly id="310366538" type="building.apartments" color="255,230,230" fill="1" layer="-1.00" shape="8649.933542,6348.759413 8691.300369,6343.023394 8685.076240,6298.484406 8643.709288,6304.220431 8649.933542,6348.759413"/>
    <poly id="310366539" type="natural.water" color="181,209,209" fill="1" layer="-4.00" shape="8648.284825,6290.196664 8671.209022,6286.555412 8670.125309,6274.706655 8648.077338,6277.436201 8648.284825,6290.196664"/>
    <poly id="310366759" type="building.yes" color="255,230,230" fill="1" layer="-1.00" shape="8865.697555,6069.057751 8870.684777,6103.689437 8809.314369,6110.071199 8806.308842,6076.382334 8865.697555,6069.057751"/>
    <poly id="321582795" type="leisure.golf_course" color="207,245,201" fill="1" layer="-2.00" shape="8559.417460,11880.896076 8698.105528,11791.670018 8875.922300,12098.907562 8737.133901,12181.840498 8559.417460,11880.896076"/>
    <poly id="325159778" type="amenity.place_of_worship" color="237,199,199" fill="1" layer="-1.00" shape="12404.601412,10371.181988 12428.179761,10395.311711 12443.701603,10413.798231 12458.636634,10441.667414 12468.353079,10459.526867 12472.265679,10477.490454 12475.301079,10486.083784 12500.608986,10482.077226 12517.850296,10472.427607 12584.451602,10467.759340 12660.664005,10473.750963 12673.001369,10474.993655 12729.641642,10481.288086 12745.556524,10479.592883 12748.257217,10467.295750 12749.456945,10451.421831 12747.622553,10427.663607 12744.275653,10399.608615 12740.052079,10362.205519 12723.502226,10278.864950 12700.847829,10131.472084 12679.890377,9999.906761 12677.327806,9975.440039 12650.646299,9984.520436 12608.960940,10006.815291 12588.937388,10023.710966 12557.396539,10045.832379 12525.510937,10087.326310 12498.516053,10170.744228 12404.601412,10371.181988"/>
    <poly id="325161419" type="landuse.residential" color="235,235,227" fill="1" layer="-3.00" shape="8011.983614,8217.004525 8263.331100,8648.307609 8451.439786,8536.394479 8288.972925,8264.396331 8285.066636,8247.153388 8285.511729,8229.850605 8290.215479,8207.426038 8302.283891,8191.374199 8404.891586,8126.259634 8334.090451,8007.751618 8329.966784,8003.564176 8002.100462,8205.664959 8011.983614,8217.004525"/>
    <poly id="325161420" type="landuse.residential" color="235,235,227" fill="1" layer="-3.00" shape="8352.405515,7996.063213 8421.975517,8113.184228 8643.318053,7980.113769 8577.727569,7855.725252 8352.405515,7996.063213"/>
    <poly id="325161430" type="landuse.residential" color="235,235,227" fill="1" layer="-3.00" shape="8720.952195,7821.917287 8965.280485,8233.822262 9023.195778,8201.270664 9050.488594,8177.382545 9076.674911,8148.415793 9025.154908,8069.733685 8955.479999,7946.484960 8927.044006,7900.057731 8927.872774,7885.518749 8955.914770,7846.572078 9104.924069,7759.037050 9016.828844,7620.276397 9009.352890,7612.719606 8711.368721,7790.573488 8720.952195,7821.917287"/>
    <poly id="325161460" type="landuse.residential" color="235,235,227" fill="1" layer="-3.00" shape="8956.392644,7900.555776 9091.240061,8123.992187 9142.122119,8087.123492 9200.699082,8078.239266 9254.819680,8062.945991 9281.399612,8048.099887 9156.490110,7811.515230 9134.322560,7785.926514 9124.680918,7772.388566 8971.748008,7864.252848 8961.777488,7875.228672 8958.317100,7885.378528 8956.392644,7900.555776"/>
    <poly id="325161499" type="landuse.residential" color="235,235,227" fill="1" layer="-3.00" shape="9146.345264,7766.984438 9294.899435,8030.574309 9485.123157,7914.309464 9443.825783,7871.015009 9407.280301,7808.165488 9349.025396,7703.144385 9334.046865,7673.106611 9307.128650,7667.781917 9284.805666,7676.786297 9148.328577,7755.418266 9146.345264,7766.984438"/>
    <poly id="325161570" type="landuse.residential" color="235,235,227" fill="1" layer="-3.00" shape="9026.949568,7589.531996 9128.733901,7740.701281 9267.428521,7664.924950 9310.618868,7646.197455 9347.050133,7657.140342 9438.662663,7807.767298 9469.155901,7854.848927 9496.449247,7883.966933 9507.450733,7891.710521 9627.965034,7812.620387 9371.051782,7393.630737 9357.292481,7394.574091 9340.037353,7403.507217 9026.949568,7589.531996"/>
    <poly id="325162059" type="landuse.residential" color="235,235,227" fill="1" layer="-3.00" shape="11480.815039,9233.253356 11728.432783,9650.270860 12441.197802,9220.889190 12452.872129,9181.968292 12451.391161,9153.451324 12255.249922,8748.848840 12105.924830,8834.827688 11487.581435,9207.661541 11482.632930,9218.953658 11480.815039,9233.253356"/>
    <poly id="325162774" type="landuse.forest" color="140,196,107" fill="1" layer="-3.00" shape="11125.919219,8645.325060 11250.085260,8852.130447 12044.905611,8379.974612 11911.234347,8176.972292 11898.726568,8178.635594 11125.919219,8645.325060"/>
    <poly id="325162795" type="landuse.residential" color="235,235,227" fill="1" layer="-3.00" shape="10494.858384,6399.888304 10923.688586,6262.634707 11013.014888,6491.351391 10983.466459,6533.275797 10945.116280,6546.324730 10895.165028,6551.284250 10864.215577,6570.429799 10860.582466,6603.649439 10871.262816,6620.063429 10894.603520,6625.770024 10910.623544,6652.590338 10895.803886,6717.433960 10873.108354,6734.596257 10831.803492,6772.710799 10778.828168,6833.992621 10752.364071,6872.754562 10735.867269,6876.078510 10636.186145,6879.902034 10609.963551,6761.563095 10494.858384,6399.888304"/>
    <poly id="325164037" type="amenity.public_building" color="237,199,199" fill="1" layer="-1.00" shape="9717.233410,9320.302366 9700.217956,9316.722464 9697.959476,9313.213578 9703.480165,9289.291693 9723.680704,9294.160615 9726.543432,9284.408416 9750.737050,9290.508973 9752.764982,9284.216089 9750.013481,9283.773178 9745.453782,9277.908373 9747.206024,9271.664276 9751.031024,9270.106527 9753.085643,9274.305663 9753.473566,9276.759064 9754.368522,9277.010471 9755.769467,9270.572635 9758.444495,9266.296846 9761.111238,9265.300775 9766.455273,9247.531009 9769.581808,9245.840549 9802.407665,9254.460426 9801.493996,9257.477822 9804.471432,9258.592942 9799.190936,9276.494617 9802.991083,9281.618326 9803.949256,9281.979509 9803.119415,9289.538211 9805.278923,9291.996145 9806.181462,9288.291990 9809.585842,9286.054133 9812.164541,9288.472036 9810.213804,9295.738669 9807.992592,9302.743774 9836.558693,9310.745796 9839.959474,9308.917951 9843.893573,9314.726438 9841.439200,9323.773972 9837.917175,9326.966581 9836.633854,9332.449650 9840.384077,9335.125568 9841.762636,9339.945049 9841.799736,9346.027186 9842.839974,9347.029662 9844.482489,9342.227714 9848.376438,9341.134217 9850.559987,9344.444902 9848.581973,9349.396320 9841.918001,9353.326772 9838.675308,9352.902883 9837.061878,9358.867727 9857.969154,9365.021687 9860.286859,9368.396677 9858.393419,9374.776001 9875.172908,9380.232360 9876.694954,9385.060597 9871.552196,9402.616544 9868.670860,9403.006692 9867.821134,9405.546622 9852.041843,9401.780339 9849.402475,9412.681176 9846.231276,9412.245049 9844.973322,9414.869153 9824.829225,9409.046321 9822.380264,9419.057706 9824.592029,9420.318190 9829.294411,9428.673626 9828.480590,9433.428912 9825.401854,9436.171158 9822.158127,9433.154648 9823.048633,9428.708350 9821.187620,9428.239920 9820.105679,9430.983050 9816.401576,9433.680033 9814.642038,9433.154561 9812.414212,9439.749827 9811.215561,9439.713852 9809.065135,9447.293955 9806.308282,9446.518733 9805.657750,9448.711970 9772.512254,9441.194197 9773.420337,9437.833418 9769.767092,9437.349722 9773.004837,9424.832613 9769.918613,9420.794230 9770.621589,9418.046157 9768.554033,9417.470284 9767.723355,9421.184359 9765.585741,9422.603963 9764.517659,9422.410760 9762.557514,9420.248753 9763.740412,9412.994552 9771.093828,9408.642939 9773.967259,9408.396936 9777.415327,9396.219891 9772.028039,9394.257460 9776.780953,9376.663466 9759.078969,9373.050312 9759.681014,9369.760971 9757.164268,9369.269936 9757.643457,9367.245669 9757.508578,9367.137058 9755.287635,9366.574751 9754.084464,9370.051111 9735.003309,9366.006071 9733.013350,9362.005323 9733.653822,9359.191783 9731.451017,9358.485150 9730.511683,9362.444741 9727.356081,9364.235401 9726.448559,9363.840163 9724.772352,9361.507362 9726.158899,9356.078004 9734.138432,9350.552859 9735.964255,9351.376400 9737.889282,9340.631150 9718.317413,9336.638399 9716.873240,9335.985949 9714.207429,9332.616621 9717.233410,9320.302366"/>
    <poly id="325164037#1" type="building.yes" color="255,230,230" fill="1" layer="-1.00" shape="9717.233410,9320.302366 9700.217956,9316.722464 9697.959476,9313.213578 9703.480165,9289.291693 9723.680704,9294.160615 9726.543432,9284.408416 9750.737050,9290.508973 9752.764982,9284.216089 9750.013481,9283.773178 9745.453782,9277.908373 9747.206024,9271.664276 9751.031024,9270.106527 9753.085643,9274.305663 9753.473566,9276.759064 9754.368522,9277.010471 9755.769467,9270.572635 9758.444495,9266.296846 9761.111238,9265.300775 9766.455273,9247.531009 9769.581808,9245.840549 9802.407665,9254.460426 9801.493996,9257.477822 9804.471432,9258.592942 9799.190936,9276.494617 9802.991083,9281.618326 9803.949256,9281.979509 9803.119415,9289.538211 9805.278923,9291.996145 9806.181462,9288.291990 9809.585842,9286.054133 9812.164541,9288.472036 9810.213804,9295.738669 9807.992592,9302.743774 9836.558693,9310.745796 9839.959474,9308.917951 9843.893573,9314.726438 9841.439200,9323.773972 9837.917175,9326.966581 9836.633854,9332.449650 9840.384077,9335.125568 9841.762636,9339.945049 9841.799736,9346.027186 9842.839974,9347.029662 9844.482489,9342.227714 9848.376438,9341.134217 9850.559987,9344.444902 9848.581973,9349.396320 9841.918001,9353.326772 9838.675308,9352.902883 9837.061878,9358.867727 9857.969154,9365.021687 9860.286859,9368.396677 9858.393419,9374.776001 9875.172908,9380.232360 9876.694954,9385.060597 9871.552196,9402.616544 9868.670860,9403.006692 9867.821134,9405.546622 9852.041843,9401.780339 9849.402475,9412.681176 9846.231276,9412.245049 9844.973322,9414.869153 9824.829225,9409.046321 9822.380264,9419.057706 9824.592029,9420.318190 9829.294411,9428.673626 9828.480590,9433.428912 9825.401854,9436.171158 9822.158127,9433.154648 9823.048633,9428.708350 9821.187620,9428.239920 9820.105679,9430.983050 9816.401576,9433.680033 9814.642038,9433.154561 9812.414212,9439.749827 9811.215561,9439.713852 9809.065135,9447.293955 9806.308282,9446.518733 9805.657750,9448.711970 9772.512254,9441.194197 9773.420337,9437.833418 9769.767092,9437.349722 9773.004837,9424.832613 9769.918613,9420.794230 9770.621589,9418.046157 9768.554033,9417.470284 9767.723355,9421.184359 9765.585741,9422.603963 9764.517659,9422.410760 9762.557514,9420.248753 9763.740412,9412.994552 9771.093828,9408.642939 9773.967259,9408.396936 9777.415327,9396.219891 9772.028039,9394.257460 9776.780953,9376.663466 9759.078969,9373.050312 9759.681014,9369.760971 9757.164268,9369.269936 9757.643457,9367.245669 9757.508578,9367.137058 9755.287635,9366.574751 9754.084464,9370.051111 9735.003309,9366.006071 9733.013350,9362.005323 9733.653822,9359.191783 9731.451017,9358.485150 9730.511683,9362.444741 9727.356081,9364.235401 9726.448559,9363.840163 9724.772352,9361.507362 9726.158899,9356.078004 9734.138432,9350.552859 9735.964255,9351.376400 9737.889282,9340.631150 9718.317413,9336.638399 9716.873240,9335.985949 9714.207429,9332.616621 9717.233410,9320.302366"/>