<?xml version="1.0" encoding="UTF-8"?>

<!-- generated on 03/15/20 12:52:49 by Eclipse SUMO duarouter Version 1.4.0
<configuration xmlns:xsi="http://www.w3.org/2001/XMLSchema-instance" xsi:noNamespaceSchemaLocation="http://sumo.dlr.de/xsd/duarouterConfiguration.xsd">

    <input>
        <net-file value="C:\Users\Shalin%20Shah\Sumo\2020-03-15-12-50-55\osm.net.xml"/>
        <route-files value="C:\Users\Shalin%20Shah\Sumo\2020-03-15-12-50-55\osm.passenger.trips.xml"/>
    </input>

    <output>
        <output-file value="C:\Users\Shalin%20Shah\Sumo\2020-03-15-12-50-55\osm.passenger.trips.xml.tmp"/>
        <write-trips value="true"/>
    </output>

    <time>
        <begin value="0"/>
        <end value="3600.0"/>
    </time>

    <report>
        <no-warnings value="true"/>
        <ignore-errors value="true"/>
        <no-step-log value="true"/>
    </report>

</configuration>
-->

<routes xmlns:xsi="http://www.w3.org/2001/XMLSchema-instance" xsi:noNamespaceSchemaLocation="http://sumo.dlr.de/xsd/routes_file.xsd">
    <vType id="veh_passenger" vClass="passenger"/>
    <trip id="veh0" type="veh_passenger" depart="0.00" departLane="best" from="338486780#6" to="-334510400#0"/>
    <trip id="veh1" type="veh_passenger" depart="0.27" departLane="best" from="-386759006#2" to="-379891954#1"/>
    <trip id="veh2" type="veh_passenger" depart="0.53" departLane="best" from="379890180#4" to="338772480#0"/>
    <trip id="veh3" type="veh_passenger" depart="0.80" departLane="best" from="387826072" to="-337177450#1"/>
    <trip id="veh4" type="veh_passenger" depart="1.07" departLane="best" from="-62518702#4" to="-334515986"/>
    <trip id="veh5" type="veh_passenger" depart="1.33" departLane="best" from="-379885016#0" to="334515992"/>
    <trip id="veh6" type="veh_passenger" depart="1.60" departLane="best" from="-334515917#1" to="-338817490#1"/>
    <trip id="veh7" type="veh_passenger" depart="1.87" departLane="best" from="338493979" to="337003601#1"/>
    <trip id="veh8" type="veh_passenger" depart="2.13" departLane="best" from="-379885034#1" to="337374222#2"/>
    <trip id="veh9" type="veh_passenger" depart="2.40" departLane="best" from="386762122#0" to="-29385622#1"/>
    <trip id="veh10" type="veh_passenger" depart="2.67" departLane="best" from="386760737#0" to="37630614#1"/>
    <trip id="veh11" type="veh_passenger" depart="2.93" departLane="best" from="-387124785#1" to="-338484710#3"/>
    <trip id="veh12" type="veh_passenger" depart="3.20" departLane="best" from="62520000#1" to="-387124694"/>
    <trip id="veh13" type="veh_passenger" depart="3.47" departLane="best" from="-337179697#0" to="-337179724#1"/>
    <trip id="veh14" type="veh_passenger" depart="3.73" departLane="best" from="386834826" to="338323924#1"/>
    <trip id="veh15" type="veh_passenger" depart="4.00" departLane="best" from="386761242" to="379886976#1"/>
    <trip id="veh16" type="veh_passenger" depart="4.27" departLane="best" from="337003469#1" to="62538771#13"/>
    <trip id="veh17" type="veh_passenger" depart="4.53" departLane="best" from="-562647969#1" to="337003619#0"/>
    <trip id="veh18" type="veh_passenger" depart="4.80" departLane="best" from="386801029#0" to="338484590#0"/>
    <trip id="veh19" type="veh_passenger" depart="5.07" departLane="best" from="387124708" to="337180245"/>
    <trip id="veh20" type="veh_passenger" depart="5.33" departLane="best" from="379699498#0" to="-337003317#3"/>
    <trip id="veh21" type="veh_passenger" depart="5.60" departLane="best" from="-382533795#1" to="-386762240#2"/>
    <trip id="veh22" type="veh_passenger" depart="5.87" departLane="best" from="-337003628#8" to="-386745889#18"/>
    <trip id="veh23" type="veh_passenger" depart="6.13" departLane="best" from="-337180242#1" to="-386759510#0"/>
    <trip id="veh24" type="veh_passenger" depart="6.40" departLane="best" from="338484781" to="-387529993#0"/>
    <trip id="veh25" type="veh_passenger" depart="6.67" departLane="best" from="-387831624" to="-379699598#0"/>
    <trip id="veh26" type="veh_passenger" depart="6.93" departLane="best" from="-386757679#0" to="62518643#10"/>
    <trip id="veh27" type="veh_passenger" depart="7.20" departLane="best" from="338486815#3" to="338367074#2"/>
    <trip id="veh28" type="veh_passenger" depart="7.47" departLane="best" from="-338493984#13" to="379886974#5"/>
    <trip id="veh29" type="veh_passenger" depart="7.73" departLane="best" from="-338486796#4" to="-562688865#3"/>
    <trip id="veh30" type="veh_passenger" depart="8.00" departLane="best" from="683041006" to="338486796#0"/>
    <trip id="veh31" type="veh_passenger" depart="8.27" departLane="best" from="337003626#1" to="338772585#1"/>
    <trip id="veh32" type="veh_passenger" depart="8.53" departLane="best" from="386831037#3" to="386751095#2"/>
    <trip id="veh33" type="veh_passenger" depart="8.80" departLane="best" from="-382533803#2" to="-334516022#1"/>
    <trip id="veh34" type="veh_passenger" depart="9.07" departLane="best" from="-386830984" to="-386757685"/>
    <trip id="veh35" type="veh_passenger" depart="9.33" departLane="best" from="-379699671#1" to="62518663"/>
    <trip id="veh36" type="veh_passenger" depart="9.60" departLane="best" from="387191857#13" to="-386807284#0"/>
    <trip id="veh37" type="veh_passenger" depart="9.87" departLane="best" from="338752903#1" to="-62518575#40"/>
    <trip id="veh38" type="veh_passenger" depart="10.13" departLane="best" from="62518553#10" to="-758862881#4"/>
    <trip id="veh39" type="veh_passenger" depart="10.40" departLane="best" from="-386756727#0" to="-386747707#1"/>
    <trip id="veh40" type="veh_passenger" depart="10.67" departLane="best" from="337176210" to="-386756705"/>
    <trip id="veh41" type="veh_passenger" depart="10.93" departLane="best" from="337180294#3" to="401443300#1"/>
    <trip id="veh42" type="veh_passenger" depart="11.20" departLane="best" from="-62518613#5" to="-379885025#2"/>
    <trip id="veh43" type="veh_passenger" depart="11.47" departLane="best" from="758270925#0" to="334516056#0"/>
    <trip id="veh44" type="veh_passenger" depart="11.73" departLane="best" from="-337179666" to="-337003318#6"/>
    <trip id="veh45" type="veh_passenger" depart="12.00" departLane="best" from="-337180308" to="338484657#15"/>
    <trip id="veh46" type="veh_passenger" depart="12.27" departLane="best" from="386757682" to="-62518702#8"/>
    <trip id="veh47" type="veh_passenger" depart="12.53" departLane="best" from="-337003569#0" to="-62518528#3"/>
    <trip id="veh48" type="veh_passenger" depart="12.80" departLane="best" from="757113783#2" to="337003420"/>
    <trip id="veh49" type="veh_passenger" depart="13.07" departLane="best" from="62538763#24" to="387124710"/>
    <trip id="veh50" type="veh_passenger" depart="13.33" departLane="best" from="-326056521#1" to="379872853#0"/>
    <trip id="veh51" type="veh_passenger" depart="13.60" departLane="best" from="338772523#4" to="337003487#2"/>
    <trip id="veh52" type="veh_passenger" depart="13.87" departLane="best" from="-386757677" to="338486800#0"/>
    <trip id="veh53" type="veh_passenger" depart="14.13" departLane="best" from="-337180340#6" to="-62538769#1"/>
    <trip id="veh54" type="veh_passenger" depart="14.40" departLane="best" from="-734364674" to="62518697#13"/>
    <trip id="veh55" type="veh_passenger" depart="14.67" departLane="best" from="387191855#1" to="-386756716#0"/>
    <trip id="veh56" type="veh_passenger" depart="14.93" departLane="best" from="334497612" to="-338772367#0"/>
    <trip id="veh57" type="veh_passenger" depart="15.20" departLane="best" from="62518547#7" to="387157582#0"/>
    <trip id="veh58" type="veh_passenger" depart="15.47" departLane="best" from="-386797013#3" to="338486791#5"/>
    <trip id="veh59" type="veh_passenger" depart="15.73" departLane="best" from="338323947#5" to="-338484683#1"/>
    <trip id="veh60" type="veh_passenger" depart="16.00" departLane="best" from="386747001" to="337003569#2"/>
    <trip id="veh61" type="veh_passenger" depart="16.27" departLane="best" from="386751107#2" to="337003433"/>
    <trip id="veh62" type="veh_passenger" depart="16.53" departLane="best" from="-29377664#0" to="-386834850#1"/>
    <trip id="veh63" type="veh_passenger" depart="16.80" departLane="best" from="-334489183#0" to="62518621#6"/>
    <trip id="veh64" type="veh_passenger" depart="17.07" departLane="best" from="387194001#0" to="386806858"/>
    <trip id="veh65" type="veh_passenger" depart="17.33" departLane="best" from="-386806854" to="-337003467#2"/>
    <trip id="veh66" type="veh_passenger" depart="17.60" departLane="best" from="387192669#1" to="62518675#1"/>
    <trip id="veh67" type="veh_passenger" depart="17.87" departLane="best" from="-337177438#5" to="326056993#2"/>
    <trip id="veh68" type="veh_passenger" depart="18.13" departLane="best" from="-337003602#2" to="386746987"/>
    <trip id="veh69" type="veh_passenger" depart="18.40" departLane="best" from="386748565#2" to="-338323935#0"/>
    <trip id="veh70" type="veh_passenger" depart="18.67" departLane="best" from="29378021#9" to="337003613#4"/>
    <trip id="veh71" type="veh_passenger" depart="18.93" departLane="best" from="-386756728#0" to="387157595#2"/>
    <trip id="veh72" type="veh_passenger" depart="19.20" departLane="best" from="-62525039#1" to="-379699679#0"/>
    <trip id="veh73" type="veh_passenger" depart="19.47" departLane="best" from="337003488#1" to="379886977#0"/>
    <trip id="veh74" type="veh_passenger" depart="19.73" departLane="best" from="-339748041#1" to="-386806917#0"/>
    <trip id="veh75" type="veh_passenger" depart="20.00" departLane="best" from="754781859" to="338639981"/>
    <trip id="veh76" type="veh_passenger" depart="20.27" departLane="best" from="-62538779#10" to="334516176#7"/>
    <trip id="veh77" type="veh_passenger" depart="20.53" departLane="best" from="-337791873#2" to="-379891958#8"/>
    <trip id="veh78" type="veh_passenger" depart="20.80" departLane="best" from="-387124748#3" to="337180346#4"/>
    <trip id="veh79" type="veh_passenger" depart="21.07" departLane="best" from="-382533809#2" to="-379885032"/>
    <trip id="veh80" type="veh_passenger" depart="21.33" departLane="best" from="-337003607#3" to="338484696#1"/>
    <trip id="veh81" type="veh_passenger" depart="21.60" departLane="best" from="-382533803#0" to="62518524#1"/>
    <trip id="veh82" type="veh_passenger" depart="21.87" departLane="best" from="387058798" to="-337003607#1"/>
    <trip id="veh83" type="veh_passenger" depart="22.13" departLane="best" from="-386746609#1" to="338772361"/>
    <trip id="veh84" type="veh_passenger" depart="22.40" departLane="best" from="-379868115#28" to="-338367071#9"/>
    <trip id="veh85" type="veh_passenger" depart="22.67" departLane="best" from="62518639#1" to="337179709#2"/>
    <trip id="veh86" type="veh_passenger" depart="22.93" departLane="best" from="29377861#2" to="386756285#1"/>
    <trip id="veh87" type="veh_passenger" depart="23.20" departLane="best" from="386761248" to="-338772554#1"/>
    <trip id="veh88" type="veh_passenger" depart="23.47" departLane="best" from="-337179725#0" to="-62538753#1"/>
    <trip id="veh89" type="veh_passenger" depart="23.73" departLane="best" from="-62525041#13" to="29377484#7"/>
    <trip id="veh90" type="veh_passenger" depart="24.00" departLane="best" from="379886206#1" to="338772432"/>
    <trip id="veh91" type="veh_passenger" depart="24.27" departLane="best" from="682402028#4" to="-337179727#32"/>
    <trip id="veh92" type="veh_passenger" depart="24.53" departLane="best" from="-62518623#40" to="-387124769#2"/>
    <trip id="veh93" type="veh_passenger" depart="24.80" departLane="best" from="387124708" to="-386751075#3"/>
    <trip id="veh94" type="veh_passenger" depart="25.07" departLane="best" from="-338772552#0" to="-682402047#0"/>
    <trip id="veh95" type="veh_passenger" depart="25.33" departLane="best" from="-62518702#3" to="-386760307"/>
    <trip id="veh96" type="veh_passenger" depart="25.60" departLane="best" from="-386751077#2" to="62518575#30"/>
    <trip id="veh97" type="veh_passenger" depart="25.87" departLane="best" from="-682401967#2" to="387124731"/>
    <trip id="veh98" type="veh_passenger" depart="26.13" departLane="best" from="337003611#4" to="-337003355"/>
    <trip id="veh99" type="veh_passenger" depart="26.40" departLane="best" from="761700876#3" to="386806930#1"/>
    <trip id="veh100" type="veh_passenger" depart="26.67" departLane="best" from="62538759#13" to="62518610#2"/>
    <trip id="veh101" type="veh_passenger" depart="26.93" departLane="best" from="386834848#0" to="-338486808#1"/>
    <trip id="veh102" type="veh_passenger" depart="27.20" departLane="best" from="326056515" to="-379868115#20"/>
    <trip id="veh103" type="veh_passenger" depart="27.47" departLane="best" from="-62518623#1" to="-337003471#1"/>
    <trip id="veh104" type="veh_passenger" depart="27.73" departLane="best" from="-562662247#0" to="682402044#10"/>
    <trip id="veh105" type="veh_passenger" depart="28.00" departLane="best" from="-386756728#3" to="386756282#5"/>
    <trip id="veh106" type="veh_passenger" depart="28.27" departLane="best" from="-744790565#1" to="-62518705#6"/>
    <trip id="veh107" type="veh_passenger" depart="28.53" departLane="best" from="62520001#0" to="755066535#0"/>
    <trip id="veh108" type="veh_passenger" depart="28.80" departLane="best" from="337003621#6" to="379872178#5"/>
    <trip id="veh109" type="veh_passenger" depart="29.07" departLane="best" from="-338484705#1" to="-386796993"/>
    <trip id="veh110" type="veh_passenger" depart="29.33" departLane="best" from="62538757#0" to="337180279#10"/>
    <trip id="veh111" type="veh_passenger" depart="29.60" departLane="best" from="337003573#0" to="386745882#2"/>
    <trip id="veh112" type="veh_passenger" depart="29.87" departLane="best" from="-337003463#1" to="337180302#2"/>
    <trip id="veh113" type="veh_passenger" depart="30.13" departLane="best" from="334510400#1" to="386835305#1"/>
    <trip id="veh114" type="veh_passenger" depart="30.40" departLane="best" from="-338484788#2" to="62525092#14"/>
    <trip id="veh115" type="veh_passenger" depart="30.67" departLane="best" from="-337003629#6" to="-338772482"/>
    <trip id="veh116" type="veh_passenger" depart="30.93" departLane="best" from="337559027#0" to="338772453#4"/>
    <trip id="veh117" type="veh_passenger" depart="31.20" departLane="best" from="-386746132" to="-337791858#0"/>
    <trip id="veh118" type="veh_passenger" depart="31.47" departLane="best" from="387529997#0" to="-386747703"/>
    <trip id="veh119" type="veh_passenger" depart="31.73" departLane="best" from="337381933" to="338484595"/>
    <trip id="veh120" type="veh_passenger" depart="32.00" departLane="best" from="-62518695#22" to="337180300#1"/>
    <trip id="veh121" type="veh_passenger" depart="32.27" departLane="best" from="334516285#1" to="62518638#19"/>
    <trip id="veh122" type="veh_passenger" depart="32.53" departLane="best" from="-379699481#3" to="379871402#1"/>
    <trip id="veh123" type="veh_passenger" depart="32.80" departLane="best" from="-386746609#23" to="-62518599"/>
    <trip id="veh124" type="veh_passenger" depart="33.07" departLane="best" from="338772367#1" to="-386800972"/>
    <trip id="veh125" type="veh_passenger" depart="33.33" departLane="best" from="-386831006" to="386746132"/>
    <trip id="veh126" type="veh_passenger" depart="33.60" departLane="best" from="-337003612#4" to="-758696468"/>
    <trip id="veh127" type="veh_passenger" depart="33.87" departLane="best" from="758862881#2" to="757113783#2"/>
    <trip id="veh128" type="veh_passenger" depart="34.13" departLane="best" from="-337003613#17" to="-379868115#0"/>
    <trip id="veh129" type="veh_passenger" depart="34.40" departLane="best" from="-386756728#3" to="62518635#10"/>
    <trip id="veh130" type="veh_passenger" depart="34.67" departLane="best" from="387198030#0" to="387197542#5"/>
    <trip id="veh131" type="veh_passenger" depart="34.94" departLane="best" from="-387831613" to="-338486769#0"/>
    <trip id="veh132" type="veh_passenger" depart="35.20" departLane="best" from="386806875" to="379699509#0"/>
    <trip id="veh133" type="veh_passenger" depart="35.47" departLane="best" from="338367082" to="682411063#0"/>
    <trip id="veh134" type="veh_passenger" depart="35.74" departLane="best" from="338752896#4" to="-325166114#3"/>
    <trip id="veh135" type="veh_passenger" depart="36.00" departLane="best" from="386795635" to="-386798148#0"/>
    <trip id="veh136" type="veh_passenger" depart="36.27" departLane="best" from="338768423#5" to="62518646#15"/>
    <trip id="veh137" type="veh_passenger" depart="36.54" departLane="best" from="-338367098#3" to="-337377613#2"/>
    <trip id="veh138" type="veh_passenger" depart="36.80" departLane="best" from="-337180296#2" to="337003621#13"/>
    <trip id="veh139" type="veh_passenger" depart="37.07" departLane="best" from="-386758972" to="338323935#2"/>
    <trip id="veh140" type="veh_passenger" depart="37.34" departLane="best" from="379871400#1" to="-37631008#0"/>
    <trip id="veh141" type="veh_passenger" depart="37.60" departLane="best" from="338484707#0" to="-386756720#1"/>
    <trip id="veh142" type="veh_passenger" depart="37.87" departLane="best" from="326057089#0" to="62518524#0"/>
    <trip id="veh143" type="veh_passenger" depart="38.14" departLane="best" from="386834787" to="-337179693#0"/>
    <trip id="veh144" type="veh_passenger" depart="38.40" departLane="best" from="-62525041#13" to="-386759497"/>
    <trip id="veh145" type="veh_passenger" depart="38.67" departLane="best" from="-29377896#5" to="386750516#1"/>
    <trip id="veh146" type="veh_passenger" depart="38.94" departLane="best" from="338486770" to="-386756695#1"/>
    <trip id="veh147" type="veh_passenger" depart="39.20" departLane="best" from="379891954#8" to="337003618#3"/>
    <trip id="veh148" type="veh_passenger" depart="39.47" departLane="best" from="-62525129#11" to="-326056503#0"/>
    <trip id="veh149" type="veh_passenger" depart="39.74" departLane="best" from="-337003618#12" to="387517843#1"/>
    <trip id="veh150" type="veh_passenger" depart="40.00" departLane="best" from="562646909#0" to="337003602#8"/>
    <trip id="veh151" type="veh_passenger" depart="40.27" departLane="best" from="386806889" to="337180294#5"/>
    <trip id="veh152" type="veh_passenger" depart="40.54" departLane="best" from="-338484639#0" to="-338323925#0"/>
    <trip id="veh153" type="veh_passenger" depart="40.80" departLane="best" from="-386806866" to="405097264#1"/>
    <trip id="veh154" type="veh_passenger" depart="41.07" departLane="best" from="386758059#4" to="387124708"/>
    <trip id="veh155" type="veh_passenger" depart="41.34" departLane="best" from="401443301" to="-379699665#0"/>
    <trip id="veh156" type="veh_passenger" depart="41.60" departLane="best" from="-386751076#8" to="-337180275#1"/>
    <trip id="veh157" type="veh_passenger" depart="41.87" departLane="best" from="386751114#1" to="387517852#2"/>
    <trip id="veh158" type="veh_passenger" depart="42.14" departLane="best" from="-62518638#16" to="338484607#1"/>
    <trip id="veh159" type="veh_passenger" depart="42.40" departLane="best" from="-338484704#0" to="62518623#23"/>
    <trip id="veh160" type="veh_passenger" depart="42.67" departLane="best" from="387124775#2" to="62548011#0"/>
    <trip id="veh161" type="veh_passenger" depart="42.94" departLane="best" from="386762142#2" to="387198361#3"/>
    <trip id="veh162" type="veh_passenger" depart="43.20" departLane="best" from="-334510398#0" to="379890185#1"/>
    <trip id="veh163" type="veh_passenger" depart="43.47" departLane="best" from="-386949306" to="62518623#40"/>
    <trip id="veh164" type="veh_passenger" depart="43.74" departLane="best" from="386759506#2" to="387124782"/>
    <trip id="veh165" type="veh_passenger" depart="44.00" departLane="best" from="386762142#2" to="-386757676"/>
    <trip id="veh166" type="veh_passenger" depart="44.27" departLane="best" from="386756705" to="-337180302#2"/>
    <trip id="veh167" type="veh_passenger" depart="44.54" departLane="best" from="387157586#1" to="387058797"/>
    <trip id="veh168" type="veh_passenger" depart="44.80" departLane="best" from="-379890184#4" to="386795642#1"/>
    <trip id="veh169" type="veh_passenger" depart="45.07" departLane="best" from="178802152#4" to="-386802983#0"/>
    <trip id="veh170" type="veh_passenger" depart="45.34" departLane="best" from="386758055#2" to="-382533793#0"/>
    <trip id="veh171" type="veh_passenger" depart="45.60" departLane="best" from="-334510367#4" to="-338772583#2"/>
    <trip id="veh172" type="veh_passenger" depart="45.87" departLane="best" from="-386835302#1" to="387125615"/>
    <trip id="veh173" type="veh_passenger" depart="46.14" departLane="best" from="62538746#1" to="-386760579#0"/>
    <trip id="veh174" type="veh_passenger" depart="46.40" departLane="best" from="682401979" to="337003483#2"/>
    <trip id="veh175" type="veh_passenger" depart="46.67" departLane="best" from="62518646#14" to="-337377613#1"/>
    <trip id="veh176" type="veh_passenger" depart="46.94" departLane="best" from="62538763#10" to="-338772366"/>
    <trip id="veh177" type="veh_passenger" depart="47.20" departLane="best" from="62525098#0" to="-386756729#2"/>
    <trip id="veh178" type="veh_passenger" depart="47.47" departLane="best" from="-337180304#1" to="-62538768#0"/>
    <trip id="veh179" type="veh_passenger" depart="47.74" departLane="best" from="379886203#2" to="-386807118#0"/>
    <trip id="veh180" type="veh_passenger" depart="48.00" departLane="best" from="338323930#0" to="334516077#1"/>
    <trip id="veh181" type="veh_passenger" depart="48.27" departLane="best" from="-386751109#4" to="379700126#0"/>
    <trip id="veh182" type="veh_passenger" depart="48.54" departLane="best" from="-29377739#0" to="62518605#9"/>
    <trip id="veh183" type="veh_passenger" depart="48.80" departLane="best" from="337003483#3" to="379872850#7"/>
    <trip id="veh184" type="veh_passenger" depart="49.07" departLane="best" from="379891958#2" to="338772382"/>
    <trip id="veh185" type="veh_passenger" depart="49.34" departLane="best" from="-387529985" to="-337003603#6"/>
    <trip id="veh186" type="veh_passenger" depart="49.60" departLane="best" from="338768424#3" to="-386949211#1"/>
    <trip id="veh187" type="veh_passenger" depart="49.87" departLane="best" from="-386807120#0" to="386834851#0"/>
    <trip id="veh188" type="veh_passenger" depart="50.14" departLane="best" from="379872178#1" to="-386800995"/>
    <trip id="veh189" type="veh_passenger" depart="50.40" departLane="best" from="-386806882" to="-62518644#4"/>
    <trip id="veh190" type="veh_passenger" depart="50.67" departLane="best" from="-62518623#36" to="-386796556#0"/>
    <trip id="veh191" type="veh_passenger" depart="50.94" departLane="best" from="-338323924#0" to="-62518697#14"/>
    <trip id="veh192" type="veh_passenger" depart="51.20" departLane="best" from="62518651#1" to="338772488#3"/>
    <trip id="veh193" type="veh_passenger" depart="51.47" departLane="best" from="562646238#2" to="338484550"/>
    <trip id="veh194" type="veh_passenger" depart="51.74" departLane="best" from="-386801005" to="337003611#0"/>
    <trip id="veh195" type="veh_passenger" depart="52.00" departLane="best" from="-239877558#3" to="-386762157#0"/>
    <trip id="veh196" type="veh_passenger" depart="52.27" departLane="best" from="-62538746#5" to="337180282#1"/>
    <trip id="veh197" type="veh_passenger" depart="52.54" departLane="best" from="338752898#0" to="29377239#0"/>
    <trip id="veh198" type="veh_passenger" depart="52.80" departLane="best" from="-682350402#0" to="-379868115#19"/>
    <trip id="veh199" type="veh_passenger" depart="53.07" departLane="best" from="29377876#4" to="562646226#0"/>
    <trip id="veh200" type="veh_passenger" depart="53.34" departLane="best" from="386758059#2" to="-338486816#6"/>
    <trip id="veh201" type="veh_passenger" depart="53.60" departLane="best" from="-337176265#2" to="334516139#0"/>
    <trip id="veh202" type="veh_passenger" depart="53.87" departLane="best" from="338484691" to="-387060496#1"/>
    <trip id="veh203" type="veh_passenger" depart="54.14" departLane="best" from="386796531" to="386746119"/>
    <trip id="veh204" type="veh_passenger" depart="54.40" departLane="best" from="338772382" to="-379891958#7"/>
    <trip id="veh205" type="veh_passenger" depart="54.67" departLane="best" from="-338846344" to="-334510376"/>
    <trip id="veh206" type="veh_passenger" depart="54.94" departLane="best" from="-386747002" to="29384940#1"/>
    <trip id="veh207" type="veh_passenger" depart="55.20" departLane="best" from="386834856#1" to="-337003613#0"/>
    <trip id="veh208" type="veh_passenger" depart="55.47" departLane="best" from="-62518677#0" to="338484683#1"/>
    <trip id="veh209" type="veh_passenger" depart="55.74" departLane="best" from="-338772592#3" to="339748054#2"/>
    <trip id="veh210" type="veh_passenger" depart="56.00" departLane="best" from="334489015#4" to="-386746988"/>
    <trip id="veh211" type="veh_passenger" depart="56.27" departLane="best" from="338752903#5" to="-29384529#2"/>
    <trip id="veh212" type="veh_passenger" depart="56.54" departLane="best" from="386745889#8" to="386749505#1"/>
    <trip id="veh213" type="veh_passenger" depart="56.80" departLane="best" from="-337180294#6" to="-62525092#22"/>
    <trip id="veh214" type="veh_passenger" depart="57.07" departLane="best" from="-338772354#2" to="62520002#4"/>
    <trip id="veh215" type="veh_passenger" depart="57.34" departLane="best" from="334516140#1" to="-337003340"/>
    <trip id="veh216" type="veh_passenger" depart="57.60" departLane="best" from="-386751076#13" to="386834853#1"/>
    <trip id="veh217" type="veh_passenger" depart="57.87" departLane="best" from="-757113783#4" to="386759507#2"/>
    <trip id="veh218" type="veh_passenger" depart="58.14" departLane="best" from="338768445#0" to="682411066#6"/>
    <trip id="veh219" type="veh_passenger" depart="58.40" departLane="best" from="337559028#6" to="62518688#1"/>
    <trip id="veh220" type="veh_passenger" depart="58.67" departLane="best" from="387537548" to="338484508"/>
    <trip id="veh221" type="veh_passenger" depart="58.94" departLane="best" from="379872174" to="334515952"/>
    <trip id="veh222" type="veh_passenger" depart="59.20" departLane="best" from="386802983#8" to="337003610#8"/>
    <trip id="veh223" type="veh_passenger" depart="59.47" departLane="best" from="389829143#2" to="382533785#0"/>
    <trip id="veh224" type="veh_passenger" depart="59.74" departLane="best" from="29378021#11" to="-386756137#2"/>
    <trip id="veh225" type="veh_passenger" depart="60.00" departLane="best" from="-386747712#0" to="338486783#3"/>
    <trip id="veh226" type="veh_passenger" depart="60.27" departLane="best" from="386748565#1" to="337003317#1"/>
    <trip id="veh227" type="veh_passenger" depart="60.54" departLane="best" from="338484633" to="-386759003#1"/>
    <trip id="veh228" type="veh_passenger" depart="60.80" departLane="best" from="-337003621#6" to="-386762137"/>
    <trip id="veh229" type="veh_passenger" depart="61.07" departLane="best" from="-386758346" to="-386832157#1"/>
    <trip id="veh230" type="veh_passenger" depart="61.34" departLane="best" from="337003493#19" to="-338484545"/>
    <trip id="veh231" type="veh_passenger" depart="61.60" departLane="best" from="-386745882#2" to="339747753#1"/>
    <trip id="veh232" type="veh_passenger" depart="61.87" departLane="best" from="379699593#14" to="-337003573#0"/>
    <trip id="veh233" type="veh_passenger" depart="62.14" departLane="best" from="-62518640" to="337003588#1"/>
    <trip id="veh234" type="veh_passenger" depart="62.40" departLane="best" from="-62518680#4" to="-379699500#2"/>
    <trip id="veh235" type="veh_passenger" depart="62.67" departLane="best" from="-62518697#0" to="62518523#0"/>
    <trip id="veh236" type="veh_passenger" depart="62.94" departLane="best" from="337180293#2" to="339748041#4"/>
    <trip id="veh237" type="veh_passenger" depart="63.20" departLane="best" from="386949299" to="386748566#7"/>
    <trip id="veh238" type="veh_passenger" depart="63.47" departLane="best" from="-62518524#3" to="-29384529#5"/>
    <trip id="veh239" type="veh_passenger" depart="63.74" departLane="best" from="-387191857#4" to="386746185#0"/>
    <trip id="veh240" type="veh_passenger" depart="64.00" departLane="best" from="386835304#0" to="62518695#9"/>
    <trip id="veh241" type="veh_passenger" depart="64.27" departLane="best" from="-62518695#19" to="386745880#1"/>
    <trip id="veh242" type="veh_passenger" depart="64.54" departLane="best" from="337003597#3" to="338323918"/>
    <trip id="veh243" type="veh_passenger" depart="64.80" departLane="best" from="-62538771#14" to="-334515947#0"/>
    <trip id="veh244" type="veh_passenger" depart="65.07" departLane="best" from="-387060863#0" to="338772520#2"/>
    <trip id="veh245" type="veh_passenger" depart="65.34" departLane="best" from="-62518627#0" to="-338486805#0"/>
    <trip id="veh246" type="veh_passenger" depart="65.60" departLane="best" departSpeed="max" from="29377288" to="-338323926#1"/>
    <trip id="veh247" type="veh_passenger" depart="65.87" departLane="best" from="338484601#1" to="-334515917#9"/>
    <trip id="veh248" type="veh_passenger" depart="66.14" departLane="best" from="-62518575#0" to="337177459#2"/>
    <trip id="veh249" type="veh_passenger" depart="66.40" departLane="best" from="-334515920#2" to="338486807#3"/>
    <trip id="veh250" type="veh_passenger" depart="66.67" departLane="best" from="-338484505" to="223454695#0"/>
    <trip id="veh251" type="veh_passenger" depart="66.94" departLane="best" from="-337003348" to="-562662247#1"/>