<?xml version="1.0" encoding="UTF-8"?>
<!-- generated on 2020-03-23 23:15:08.537360 by randomTrips.py UNKNOWN
  options: -n osm.net.xml -r osm.rou.xml -e 25000 -l
-->
<routes xmlns:xsi="http://www.w3.org/2001/XMLSchema-instance" xsi:noNamespaceSchemaLocation="http://sumo.dlr.de/xsd/routes_file.xsd">
    <trip id="0" depart="0.00" from="-338817486" to="-682411066#1"/>
    <trip id="1" depart="1.00" from="-62518623#1" to="386749311#2"/>
    <trip id="2" depart="2.00" from="-387125619" to="-338367072#1"/>
    <trip id="3" depart="3.00" from="37630613#4" to="338772379"/>
    <trip id="4" depart="4.00" from="700027706#1" to="-386831015#1"/>
    <trip id="5" depart="5.00" from="334516624" to="-387831619"/>
    <trip id="6" depart="6.00" from="338484676#1" to="62518530#2"/>
    <trip id="7" depart="7.00" from="62518620#0" to="379872177#1"/>
    <trip id="8" depart="8.00" from="-337379093" to="386746963"/>
    <trip id="9" depart="9.00" from="337374787#1" to="-683040833"/>
    <trip id="10" depart="10.00" from="-62518575#10" to="-338484507"/>
    <trip id="11" depart="11.00" from="-681615816" to="337003619#3"/>
    <trip id="12" depart="12.00" from="338817481" to="-387156567"/>
    <trip id="13" depart="13.00" from="337003603#8" to="-334509112#0"/>
    <trip id="14" depart="14.00" from="379868488#9" to="386798139"/>
    <trip id="15" depart="15.00" from="387198361#0" to="326056502#0"/>
    <trip id="16" depart="16.00" from="-387198031#0" to="338772385"/>
    <trip id="17" depart="17.00" from="29378021#1" to="-62518697#11"/>
    <trip id="18" depart="18.00" from="-334516176#0" to="-379699490#1"/>
    <trip id="19" depart="19.00" from="-683040831" to="62518568#3"/>
    <trip id="20" depart="20.00" from="-337180263" to="-386831035#1"/>
    <trip id="21" depart="21.00" from="-387124728" to="-62518697#8"/>
    <trip id="22" depart="22.00" from="-307192819#2" to="379886977#0"/>
    <trip id="23" depart="23.00" from="62518523#0" to="338484701"/>
    <trip id="24" depart="24.00" from="-673070845#3" to="337791875#0"/>
    <trip id="25" depart="25.00" from="62525106#1" to="338484651#0"/>
    <trip id="26" depart="26.00" from="326048217#0" to="334516624"/>
    <trip id="27" depart="27.00" from="62518681" to="-337176186#0"/>
    <trip id="28" depart="28.00" from="62518695#2" to="-338493984#8"/>
    <trip id="29" depart="29.00" from="334489183#2" to="-334509109"/>
    <trip id="30" depart="30.00" from="-379699593#19" to="-338772494#0"/>
    <trip id="31" depart="31.00" from="386756793#1" to="338475756#0"/>
    <trip id="32" depart="32.00" from="-338817481" to="244342860#2"/>
    <trip id="33" depart="33.00" from="379871400#0" to="-62518613#6"/>
    <trip id="34" depart="34.00" from="-337003623#3" to="62518529"/>
    <trip id="35" depart="35.00" from="337003586#1" to="682402019#3"/>
    <trip id="36" depart="36.00" from="-386949292" to="338367085"/>
    <trip id="37" depart="37.00" from="-334515997#1" to="-338323900"/>
    <trip id="38" depart="38.00" from="-338484701" to="-758270925#1"/>
    <trip id="39" depart="39.00" from="178802158" to="-339748040#2"/>
    <trip id="40" depart="40.00" from="401443299" to="682401987"/>
    <trip id="41" depart="41.00" from="-337791868" to="-667761617"/>
    <trip id="42" depart="42.00" from="-386757690#2" to="-325166114#2"/>
    <trip id="43" depart="43.00" from="338752908#2" to="62525102#0"/>
    <trip id="44" depart="44.00" from="-337566331#0" to="-62518690#0"/>
    <trip id="45" depart="45.00" from="379890187#0" to="386796983"/>
    <trip id="46" depart="46.00" from="379700062#0" to="334516142#1"/>
    <trip id="47" depart="47.00" from="338484533" to="-386796554#1"/>
    <trip id="48" depart="48.00" from="62518530#5" to="338772503#0"/>
    <trip id="49" depart="49.00" from="-387058788" to="734646318"/>
    <trip id="50" depart="50.00" from="338493979" to="-386746984"/>
    <trip id="51" depart="51.00" from="-386746962" to="-62518567#9"/>
    <trip id="52" depart="52.00" from="62538771#4" to="379874538#1"/>
    <trip id="53" depart="53.00" from="-62518543#0" to="-338486807#4"/>
    <trip id="54" depart="54.00" from="62518521" to="-338846344"/>
    <trip id="55" depart="55.00" from="-62518607#1" to="387124742"/>
    <trip id="56" depart="56.00" from="337381928" to="-338484715#0"/>
    <trip id="57" depart="57.00" from="338752898#4" to="-683040832"/>
    <trip id="58" depart="58.00" from="62520002#7" to="338768423#0"/>
    <trip id="59" depart="59.00" from="62518609#3" to="-338486789#2"/>
    <trip id="60" depart="60.00" from="-387157583#1" to="-338817481"/>
    <trip id="61" depart="61.00" from="-386796536" to="-562643076"/>
    <trip id="62" depart="62.00" from="733464506#2" to="62518656#4"/>
    <trip id="63" depart="63.00" from="400960195" to="337376291"/>
    <trip id="64" depart="64.00" from="-405097266#0" to="29384940#2"/>
    <trip id="65" depart="65.00" from="682401969" to="334489019#2"/>
    <trip id="66" depart="66.00" from="338768434" to="379872854#5"/>
    <trip id="67" depart="67.00" from="339748038#3" to="338752916#2"/>
    <trip id="68" depart="68.00" from="338493980#0" to="-758627230#1"/>
    <trip id="69" depart="69.00" from="62518550#1" to="-334491379#0"/>
    <trip id="70" depart="70.00" from="338367071#0" to="379874538#2"/>
    <trip id="71" depart="71.00" from="-386831566" to="379890676#3"/>
    <trip id="72" depart="72.00" from="379885028#2" to="338817481"/>
    <trip id="73" depart="73.00" from="339748046" to="29377349#2"/>
    <trip id="74" depart="74.00" from="338484702" to="562646249"/>
    <trip id="75" depart="75.00" from="334489018#8" to="-338846344"/>
    <trip id="76" depart="76.00" from="744507988#1" to="379890675#2"/>
    <trip id="77" depart="77.00" from="-387529982" to="-62518604#9"/>
    <trip id="78" depart="78.00" from="386797013#1" to="337003511#2"/>
    <trip id="79" depart="79.00" from="673070845#3" to="379873912#3"/>
    <trip id="80" depart="80.00" from="62518656#1" to="-62525092#34"/>
    <trip id="81" depart="81.00" from="62518525#1" to="379872178#1"/>
    <trip id="82" depart="82.00" from="338752928#0" to="37630614#1"/>
    <trip id="83" depart="83.00" from="-682409925" to="386751118#0"/>
    <trip id="84" depart="84.00" from="386797008#0" to="326057780#0"/>
    <trip id="85" depart="85.00" from="733464506#0" to="338772399"/>
    <trip id="86" depart="86.00" from="337003602#5" to="-29378021#10"/>
    <trip id="87" depart="87.00" from="-338772497#0" to="29378021#6"/>
    <trip id="88" depart="88.00" from="734358271" to="-62518628#0"/>
    <trip id="89" depart="89.00" from="386758346" to="379885010#2"/>
    <trip id="90" depart="90.00" from="386746968" to="338752924#2"/>
    <trip id="91" depart="91.00" from="379890675#0" to="386748565#3"/>
    <trip id="92" depart="92.00" from="405097266#0" to="-62538749#0"/>
    <trip id="93" depart="93.00" from="-334516020" to="-334504322#0"/>
    <trip id="94" depart="94.00" from="338817489#1" to="-337003588#0"/>
    <trip id="95" depart="95.00" from="338768442#3" to="-339734222#1"/>
    <trip id="96" depart="96.00" from="-386757773" to="-334509112#0"/>
    <trip id="97" depart="97.00" from="-379885035" to="334489019#0"/>
    <trip id="98" depart="98.00" from="-386757686#10" to="386749506#0"/>
    <trip id="99" depart="99.00" from="-62518534#3" to="337179676"/>
    <trip id="100" depart="100.00" from="-338817481" to="-562646247#1"/>
    <trip id="101" depart="101.00" from="338768433" to="338367093#1"/>
    <trip id="102" depart="102.00" from="-62518695#1" to="379871396#2"/>
    <trip id="103" depart="103.00" from="29384940#2" to="-337791873#1"/>
    <trip id="104" depart="104.00" from="-386835302#1" to="386746986"/>
    <trip id="105" depart="105.00" from="681615819" to="-386751114#0"/>
    <trip id="106" depart="106.00" from="338768445#3" to="62518646#3"/>
    <trip id="107" depart="107.00" from="-29378021#1" to="-386746613#0"/>
    <trip id="108" depart="108.00" from="62518686" to="-62518571#10"/>
    <trip id="109" depart="109.00" from="-387530079#9" to="-62518549#2"/>
    <trip id="110" depart="110.00" from="387826871" to="-339734222#2"/>
    <trip id="111" depart="111.00" from="339748054#2" to="-62518623#52"/>
    <trip id="112" depart="112.00" from="-338772603#3" to="62518624#5"/>
    <trip id="113" depart="113.00" from="62518660#7" to="-387826080#6"/>
    <trip id="114" depart="114.00" from="-62538746#13" to="338367077"/>
    <trip id="115" depart="115.00" from="386749314#1" to="24926720#2"/>
    <trip id="116" depart="116.00" from="-387194002#1" to="-338817481"/>
    <trip id="117" depart="117.00" from="-338484563" to="386831004"/>
    <trip id="118" depart="118.00" from="326321227#3" to="29378021#1"/>
    <trip id="119" depart="119.00" from="-62518691#2" to="62518559#0"/>
    <trip id="120" depart="120.00" from="-339748039#3" to="-62518646#2"/>
    <trip id="121" depart="121.00" from="-386757690#2" to="392763787"/>
    <trip id="122" depart="122.00" from="379699680#1" to="-62518672#1"/>
    <trip id="123" depart="123.00" from="386759008#4" to="-387192663"/>
    <trip id="124" depart="124.00" from="-334516217#8" to="386748566#0"/>
    <trip id="125" depart="125.00" from="337180310#3" to="379872172#1"/>
    <trip id="126" depart="126.00" from="-337791888#5" to="338486813#5"/>
    <trip id="127" depart="127.00" from="379890190#0" to="62518638#18"/>
    <trip id="128" depart="128.00" from="-339748041#0" to="-379872178#0"/>
    <trip id="129" depart="129.00" from="387157597" to="-682402047#2"/>
    <trip id="130" depart="130.00" from="386761253" to="379871398#3"/>
    <trip id="131" depart="131.00" from="-382533798#1" to="-682411061#0"/>
    <trip id="132" depart="132.00" from="386749316#0" to="-338484632#1"/>
    <trip id="133" depart="133.00" from="-338756326#0" to="-337176265#0"/>
    <trip id="134" depart="134.00" from="-62518698#1" to="29384600"/>
    <trip id="135" depart="135.00" from="-673070846#0" to="-29384529#0"/>
    <trip id="136" depart="136.00" from="382533785#1" to="-337003572#1"/>
    <trip id="137" depart="137.00" from="337559028#8" to="-387198030#1"/>
    <trip id="138" depart="138.00" from="337559050" to="-379874538#2"/>
    <trip id="139" depart="139.00" from="337003321#1" to="339734222#1"/>
    <trip id="140" depart="140.00" from="334516624" to="387157597"/>
    <trip id="141" depart="141.00" from="338323944#0" to="-387197542#1"/>
    <trip id="142" depart="142.00" from="379872852#4" to="682402035"/>
    <trip id="143" depart="143.00" from="-334509107#0" to="-337003424#9"/>
    <trip id="144" depart="144.00" from="562646241" to="-334488438#3"/>
    <trip id="145" depart="145.00" from="326048214#2" to="337791854#2"/>
    <trip id="146" depart="146.00" from="-62518570#5" to="-338817481"/>
    <trip id="147" depart="147.00" from="-85171063#3" to="338484537"/>
    <trip id="148" depart="148.00" from="-334516244#4" to="-387156575"/>
    <trip id="149" depart="149.00" from="-338323939#4" to="29377349#2"/>
    <trip id="150" depart="150.00" from="757225553#1" to="338484509"/>
    <trip id="151" depart="151.00" from="379872175#3" to="-338484637#0"/>
    <trip id="152" depart="152.00" from="387198261#1" to="379886975#2"/>
    <trip id="153" depart="153.00" from="62518660#3" to="-386758057#0"/>
    <trip id="154" depart="154.00" from="244342853#3" to="-386832879#0"/>
    <trip id="155" depart="155.00" from="-562643076" to="-337179697#0"/>
    <trip id="156" depart="156.00" from="-62518528#20" to="62518538#2"/>
    <trip id="157" depart="157.00" from="29384940#1" to="-338772453#1"/>
    <trip id="158" depart="158.00" from="-62538781#1" to="-338772360"/>
    <trip id="159" depart="159.00" from="338768423#1" to="-673070842"/>
    <trip id="160" depart="160.00" from="-62518623#42" to="62518643#6"/>
    <trip id="161" depart="161.00" from="334516117#1" to="387124731"/>
    <trip id="162" depart="162.00" from="-386831579#0" to="326046786#5"/>
    <trip id="163" depart="163.00" from="62520002#5" to="387831620"/>
    <trip id="164" depart="164.00" from="338484701" to="-338486812#2"/>
    <trip id="165" depart="165.00" from="62525112" to="-682350402#3"/>
    <trip id="166" depart="166.00" from="338752919#2" to="387124769#2"/>
    <trip id="167" depart="167.00" from="-382533778#2" to="-334509109"/>
    <trip id="168" depart="168.00" from="-338486793#0" to="-386756281#0"/>
    <trip id="169" depart="169.00" from="379872853#1" to="338475756#0"/>
    <trip id="170" depart="170.00" from="338484665#1" to="338752928#2"/>
    <trip id="171" depart="171.00" from="-338817481" to="326048214#3"/>
    <trip id="172" depart="172.00" from="-62518613#6" to="337003623#3"/>
    <trip id="173" depart="173.00" from="-682401970" to="337179695#1"/>
    <trip id="174" depart="174.00" from="386760736#1" to="-758862882#2"/>
    <trip id="175" depart="175.00" from="673070845#4" to="338752466"/>
    <trip id="176" depart="176.00" from="338817484#6" to="-337003620#0"/>
    <trip id="177" depart="177.00" from="386949291" to="338817489#3"/>
    <trip id="178" depart="178.00" from="387517852#2" to="-62518648#0"/>
    <trip id="179" depart="179.00" from="-326056967#3" to="326057157#2"/>
    <trip id="180" depart="180.00" from="400959236#1" to="387197543#0"/>
    <trip id="181" depart="181.00" from="-62518607#1" to="-326056502#9"/>
    <trip id="182" depart="182.00" from="682402047#2" to="-386760579#1"/>
    <trip id="183" depart="183.00" from="-682402007" to="338772559#3"/>
    <trip id="184" depart="184.00" from="-337003602#8" to="-337381929"/>
    <trip id="185" depart="185.00" from="-334515921#0" to="-62525132#6"/>
    <trip id="186" depart="186.00" from="-338493984#2" to="-339748039#3"/>
    <trip id="187" depart="187.00" from="-337003602#8" to="338367072#3"/>
    <trip id="188" depart="188.00" from="-338817484#0" to="-62518570#3"/>
    <trip id="189" depart="189.00" from="386751113#9" to="387826080#0"/>
    <trip id="190" depart="190.00" from="29376742#5" to="62518574#3"/>
    <trip id="191" depart="191.00" from="-62518574#0" to="29384940#2"/>
    <trip id="192" depart="192.00" from="386835193" to="-338493984#2"/>
    <trip id="193" depart="193.00" from="-405097260#0" to="-403531412#2"/>
    <trip id="194" depart="194.00" from="62525095" to="334516157#2"/>
    <trip id="195" depart="195.00" from="-338780605#0" to="334491379#0"/>
    <trip id="196" depart="196.00" from="338754931#0" to="-62518694#1"/>
    <trip id="197" depart="197.00" from="338817489#3" to="-62518607#1"/>
    <trip id="198" depart="198.00" from="-62518705#1" to="682411061#1"/>
    <trip id="199" depart="199.00" from="307192819#2" to="-334509106#0"/>
    <trip id="200" depart="200.00" from="-386796541" to="-337180303#0"/>
    <trip id="201" depart="201.00" from="338484596#0" to="-62518543#8"/>
    <trip id="202" depart="202.00" from="-562646239" to="-683040832"/>
    <trip id="203" depart="203.00" from="-62525112" to="-62518547#7"/>
    <trip id="204" depart="204.00" from="-386761253" to="29384940#2"/>
    <trip id="205" depart="205.00" from="334491419#3" to="-682411061#3"/>
    <trip id="206" depart="206.00" from="-386756286#11" to="-338367093#0"/>
    <trip id="207" depart="207.00" from="-386762142#0" to="29377409#2"/>
    <trip id="208" depart="208.00" from="400960195" to="337374219"/>
    <trip id="209" depart="209.00" from="-757225554#1" to="-326072926"/>
    <trip id="210" depart="210.00" from="734719499" to="-338768439#1"/>
    <trip id="211" depart="211.00" from="386949304" to="-62518553#9"/>
    <trip id="212" depart="212.00" from="62518646#3" to="379699677#1"/>
    <trip id="213" depart="213.00" from="-325166113" to="387124707#1"/>
    <trip id="214" depart="214.00" from="338484598#1" to="62520001#3"/>
    <trip id="215" depart="215.00" from="-338772556#1" to="379890676#0"/>
    <trip id="216" depart="216.00" from="29384940#2" to="338475756#1"/>
    <trip id="217" depart="217.00" from="62518566#2" to="379890189#0"/>
    <trip id="218" depart="218.00" from="337381928" to="-338484646#5"/>
    <trip id="219" depart="219.00" from="745591734" to="386757686#9"/>
    <trip id="220" depart="220.00" from="-673070846#11" to="-683041008"/>
    <trip id="221" depart="221.00" from="-403531412#2" to="379872177#1"/>
    <trip id="222" depart="222.00" from="62518668#1" to="244342858#3"/>
    <trip id="223" depart="223.00" from="386834863#1" to="334516624"/>
    <trip id="224" depart="224.00" from="694242276#2" to="29384529#8"/>
    <trip id="225" depart="225.00" from="338493979" to="337003372"/>
    <trip id="226" depart="226.00" from="-379891957#4" to="-338817489#3"/>
    <trip id="227" depart="227.00" from="-338846344" to="-62518702#0"/>
    <trip id="228" depart="228.00" from="-29384529#6" to="-379873072#0"/>
    <trip id="229" depart="229.00" from="337374222#1" to="733464506#3"/>
    <trip id="230" depart="230.00" from="-338772366" to="338768431"/>
    <trip id="231" depart="231.00" from="334491370" to="62518600"/>
    <trip id="232" depart="232.00" from="307192494#1" to="334495637#2"/>
    <trip id="233" depart="233.00" from="-62518697#3" to="386806875"/>
    <trip id="234" depart="234.00" from="29377420#6" to="338367068#5"/>
    <trip id="235" depart="235.00" from="334516176#5" to="-457854040#0"/>
    <trip id="236" depart="236.00" from="338752933#2" to="-62518703#5"/>
    <trip id="237" depart="237.00" from="334516065#3" to="239877558#1"/>
    <trip id="238" depart="238.00" from="-334516072#6" to="-755066535#1"/>
    <trip id="239" depart="239.00" from="338817489#3" to="-338323892#2"/>
    <trip id="240" depart="240.00" from="-337381932" to="334491370"/>
    <trip id="241" depart="241.00" from="62525133#4" to="326048490#2"/>
    <trip id="242" depart="242.00" from="387529987" to="-338772486#0"/>
    <trip id="243" depart="243.00" from="-386830981" to="673070843"/>
    <trip id="244" depart="244.00" from="562646594" to="562646594"/>
    <trip id="245" depart="245.00" from="62538774#2" to="-338752928#0"/>
    <trip id="246" depart="246.00" from="338752940#3" to="338818238#1"/>
    <trip id="247" depart="247.00" from="339748046" to="-29378021#2"/>
    <trip id="248" depart="248.00" from="338323936#3" to="-337003420"/>
    <trip id="249" depart="249.00" from="-673070845#3" to="62525112"/>
    <trip id="250" depart="250.00" from="-387198030#1" to="29378023#0"/>
    <trip id="251" depart="251.00" from="337180306#3" to="337179647"/>
    <trip id="252" depart="252.00" from="-386949310" to="338484525"/>
    <trip id="253" depart="253.00" from="338817489#3" to="-338323946#2"/>
    <trip id="254" depart="254.00" from="-734358271" to="-337176217"/>
    <trip id="255" depart="255.00" from="386834850#0" to="-62518560"/>
    <trip id="256" depart="256.00" from="379890185#0" to="386757685"/>
    <trip id="257" depart="257.00" from="-387826080#6" to="683039085#0"/>
    <trip id="258" depart="258.00" from="-386751114#0" to="-29378021#9"/>
    <trip id="259" depart="259.00" from="386746616#0" to="-334488438#3"/>
    <trip id="260" depart="260.00" from="62518639#2" to="338772559#3"/>
    <trip id="261" depart="261.00" from="-339748055#2" to="682402036#0"/>
    <trip id="262" depart="262.00" from="-400959236#3" to="62518695#2"/>
    <trip id="263" depart="263.00" from="387156581" to="387198394"/>
    <trip id="264" depart="264.00" from="-562647698" to="-386803732"/>
    <trip id="265" depart="265.00" from="386758049" to="-325161019#0"/>
    <trip id="266" depart="266.00" from="-379892258#1" to="-386796554#2"/>
    <trip id="267" depart="267.00" from="386749314#3" to="-387058804"/>
    <trip id="268" depart="268.00" from="326056502#3" to="-85204516#0"/>
    <trip id="269" depart="269.00" from="-337177440" to="562646247#2"/>
    <trip id="270" depart="270.00" from="386762135" to="62538754#0"/>
    <trip id="271" depart="271.00" from="-29378021#6" to="-62518536#0"/>
    <trip id="272" depart="272.00" from="337003618#7" to="-337177440"/>
    <trip id="273" depart="273.00" from="379892258#0" to="673070845#3"/>
    <trip id="274" depart="274.00" from="-379890184#0" to="338817489#3"/>
    <trip id="275" depart="275.00" from="754781860#0" to="62518613#6"/>
    <trip id="276" depart="276.00" from="-337791886" to="-62518548#10"/>
    <trip id="277" depart="277.00" from="338367074#1" to="-338475757#1"/>
    <trip id="278" depart="278.00" from="29384529#8" to="338818238#1"/>
    <trip id="279" depart="279.00" from="338768422#10" to="62518705#2"/>
    <trip id="280" depart="280.00" from="338818238#1" to="178802156#2"/>
    <trip id="281" depart="281.00" from="-338484661#0" to="-338484536"/>
    <trip id="282" depart="282.00" from="338475756#0" to="386750514#3"/>
    <trip id="283" depart="283.00" from="387573880#0" to="-62538762#0"/>
    <trip id="284" depart="284.00" from="338768444#2" to="386749310#4"/>
    <trip id="285" depart="285.00" from="338752908#2" to="337176192"/>
    <trip id="286" depart="286.00" from="62538763#23" to="62518629#2"/>
    <trip id="287" depart="287.00" from="-562646594" to="387198354"/>
    <trip id="288" depart="288.00" from="62520002#7" to="338486771#0"/>
    <trip id="289" depart="289.00" from="62518569#0" to="62538763#11"/>
    <trip id="290" depart="290.00" from="682411066#6" to="386749308#5"/>
    <trip id="291" depart="291.00" from="-338817481" to="-682401985"/>
    <trip id="292" depart="292.00" from="178802158" to="62520002#4"/>
    <trip id="293" depart="293.00" from="326048213#2" to="62518682#2"/>
    <trip id="294" depart="294.00" from="-326056967#4" to="-62518548#3"/>
    <trip id="295" depart="295.00" from="-387157587#1" to="62548011#4"/>
    <trip id="296" depart="296.00" from="379872853#0" to="-62518523#3"/>
    <trip id="297" depart="297.00" from="-338769684#1" to="379872173#0"/>
    <trip id="298" depart="298.00" from="338323893#0" to="-379891626#2"/>
    <trip id="299" depart="299.00" from="-734310089#1" to="-334516059#2"/>
    <trip id="300" depart="300.00" from="-29385622#3" to="-387060691#0"/>
    <trip id="301" depart="301.00" from="62538774#2" to="-338484600"/>
    <trip id="302" depart="302.00" from="-326046786#1" to="379890187#0"/>
    <trip id="303" depart="303.00" from="62520001#3" to="-386756719#0"/>
    <trip id="304" depart="304.00" from="386751117#1" to="338493979"/>
    <trip id="305" depart="305.00" from="-683039072#0" to="-325166114#2"/>
    <trip id="306" depart="306.00" from="386831008" to="-62518689#2"/>
    <trip id="307" depart="307.00" from="338818240#1" to="334515920#2"/>
    <trip id="308" depart="308.00" from="682401997" to="386949212#0"/>
    <trip id="309" depart="309.00" from="-386762606#0" to="62518560"/>
    <trip id="310" depart="310.00" from="-386751076#10" to="337180290#0"/>
    <trip id="311" depart="311.00" from="733464506#1" to="338752933#1"/>
    <trip id="312" depart="312.00" from="-37631008#2" to="337791875#0"/>
    <trip id="313" depart="313.00" from="-387198395#0" to="338486802#6"/>
    <trip id="314" depart="314.00" from="-562646910" to="-334515941#2"/>
    <trip id="315" depart="315.00" from="379890180#3" to="386750514#2"/>
    <trip id="316" depart="316.00" from="-334516260#10" to="386806930#0"/>
    <trip id="317" depart="317.00" from="387058799" to="-62518695#1"/>
    <trip id="318" depart="318.00" from="307192819#1" to="-62518685#0"/>
    <trip id="319" depart="319.00" from="386830977" to="-334516061#0"/>
    <trip id="320" depart="320.00" from="-379699496" to="62538771#18"/>
    <trip id="321" depart="321.00" from="-338817488" to="-307192819#2"/>
    <trip id="322" depart="322.00" from="700025896#3" to="379890188"/>
    <trip id="323" depart="323.00" from="-338486770" to="-334516293#0"/>
    <trip id="324" depart="324.00" from="379872177#1" to="-386834849#1"/>
    <trip id="325" depart="325.00" from="-62518646#0" to="-387529992#1"/>
    <trip id="326" depart="326.00" from="379888606#0" to="29384529#14"/>
    <trip id="327" depart="327.00" from="-339748039#3" to="62518672#0"/>
    <trip id="328" depart="328.00" from="379874538#2" to="682401977"/>
    <trip id="329" depart="329.00" from="334516279#3" to="-682411059#1"/>
    <trip id="330" depart="330.00" from="386746621#4" to="-334491379#0"/>
    <trip id="331" depart="331.00" from="62518643#15" to="379871400#0"/>
    <trip id="332" depart="332.00" from="338486779#1" to="379872173#1"/>
    <trip id="333" depart="333.00" from="-334489183#0" to="386759479"/>
    <trip id="334" depart="334.00" from="62518623#48" to="705004527#3"/>
    <trip id="335" depart="335.00" from="-334510404#0" to="386756280#1"/>
    <trip id="336" depart="336.00" from="37630613#2" to="178802156#2"/>
    <trip id="337" depart="337.00" from="334491431" to="562646594"/>
    <trip id="338" depart="338.00" from="37631007#2" to="405097265#1"/>
    <trip id="339" depart="339.00" from="338769682#5" to="334516624"/>
    <trip id="340" depart="340.00" from="326048490#1" to="386748570#0"/>
    <trip id="341" depart="341.00" from="-337559027#0" to="379871398#3"/>
    <trip id="342" depart="342.00" from="334489019#2" to="-62525095"/>
    <trip id="343" depart="343.00" from="-682402040#1" to="-325161019#0"/>
    <trip id="344" depart="344.00" from="29377861#1" to="338486802#1"/>
    <trip id="345" depart="345.00" from="-338484599#1" to="-744507988#1"/>
    <trip id="346" depart="346.00" from="-386751076#4" to="338752931#1"/>
    <trip id="347" depart="347.00" from="338752928#0" to="562646594"/>
    <trip id="348" depart="348.00" from="326057157#2" to="-62525099#4"/>
    <trip id="349" depart="349.00" from="334491370" to="-386834815"/>
    <trip id="350" depart="350.00" from="307192494#1" to="338754931#12"/>
    <trip id="351" depart="351.00" from="-334497484#1" to="-562646594"/>
    <trip id="352" depart="352.00" from="-339734222#6" to="-62518689#6"/>
    <trip id="353" depart="353.00" from="337003614#0" to="337791855#2"/>
    <trip id="354" depart="354.00" from="387060704#2" to="386759002#0"/>
    <trip id="355" depart="355.00" from="386749310#2" to="326057159#0"/>
    <trip id="356" depart="356.00" from="-337003605#0" to="-386751076#2"/>
    <trip id="357" depart="357.00" from="-62525039#3" to="340238463"/>
    <trip id="358" depart="358.00" from="-29384529#13" to="326057159#0"/>
    <trip id="359" depart="359.00" from="326056524#1" to="379874538#2"/>
    <trip id="360" depart="360.00" from="62518697#3" to="338323901#2"/>
    <trip id="361" depart="361.00" from="-338367087#0" to="673070845#2"/>
    <trip id="362" depart="362.00" from="338484685#0" to="-673070842"/>
    <trip id="363" depart="363.00" from="-62518649#3" to="-338772484#1"/>
    <trip id="364" depart="364.00" from="733464506#0" to="-62518609#2"/>
    <trip id="365" depart="365.00" from="29378021#9" to="387157560#1"/>
    <trip id="366" depart="366.00" from="-338639981" to="239877558#1"/>
    <trip id="367" depart="367.00" from="379887568#2" to="-62518528#1"/>
    <trip id="368" depart="368.00" from="337379093" to="-339734224#1"/>
    <trip id="369" depart="369.00" from="338768436" to="-734646318"/>
    <trip id="370" depart="370.00" from="-379699499" to="338818240#1"/>
    <trip id="371" depart="371.00" from="337381936#0" to="-386760580#0"/>
    <trip id="372" depart="372.00" from="-339748041#0" to="387156585"/>
    <trip id="373" depart="373.00" from="-386762608#13" to="-386756707"/>
    <trip id="374" depart="374.00" from="-387060691#2" to="-683040832"/>
    <trip id="375" depart="375.00" from="29384529#7" to="334516139#2"/>
    <trip id="376" depart="376.00" from="223454704#1" to="-338817481"/>
    <trip id="377" depart="377.00" from="700025896#4" to="62518668#5"/>
    <trip id="378" depart="378.00" from="-379868115#4" to="62518673#2"/>
    <trip id="379" depart="379.00" from="239878116#1" to="339748039#3"/>
    <trip id="380" depart="380.00" from="-62538772#3" to="29377776#1"/>
    <trip id="381" depart="381.00" from="-337179717#2" to="-62538759#9"/>
    <trip id="382" depart="382.00" from="379886974#6" to="-400960196#2"/>
    <trip id="383" depart="383.00" from="387198031#0" to="62518571#8"/>
    <trip id="384" depart="384.00" from="379868488#1" to="-337179667"/>
    <trip id="385" depart="385.00" from="389829145" to="-29377876#7"/>
    <trip id="386" depart="386.00" from="-379699674" to="562646594"/>
    <trip id="387" depart="387.00" from="-334509107#0" to="-62525129#1"/>
    <trip id="388" depart="388.00" from="62548031#0" to="62518552#2"/>
    <trip id="389" depart="389.00" from="386805284#1" to="-29378021#1"/>
    <trip id="390" depart="390.00" from="62518646#10" to="62518559#0"/>
    <trip id="391" depart="391.00" from="386748566#9" to="338818248#0"/>
    <trip id="392" depart="392.00" from="-379891954#9" to="-334491381#1"/>
    <trip id="393" depart="393.00" from="379890178#4" to="-339734222#1"/>
    <trip id="394" depart="394.00" from="334516169#3" to="337176187"/>
    <trip id="395" depart="395.00" from="-405104622#2" to="-683040831"/>
    <trip id="396" depart="396.00" from="379871402#0" to="62518635#5"/>
    <trip id="397" depart="397.00" from="734358271" to="338323922"/>
    <trip id="398" depart="398.00" from="-744507988#2" to="337003626#0"/>
    <trip id="399" depart="399.00" from="62518633" to="683039085#3"/>
    <trip id="400" depart="400.00" from="339747753#2" to="62518564#1"/>
    <trip id="401" depart="401.00" from="338772381" to="338639975"/>
    <trip id="402" depart="402.00" from="337003402#0" to="-334495637#2"/>
    <trip id="403" depart="403.00" from="379888613#3" to="338367074#2"/>
    <trip id="404" depart="404.00" from="-338817489#3" to="326057160#0"/>
    <trip id="405" depart="405.00" from="62518651#4" to="-386796992"/>
    <trip id="406" depart="406.00" from="-62518562#0" to="326048490#2"/>
    <trip id="407" depart="407.00" from="62525041#14" to="-62518603"/>
    <trip id="408" depart="408.00" from="178802152#3" to="62525126#1"/>
    <trip id="409" depart="409.00" from="-386747007" to="337176204"/>
    <trip id="410" depart="410.00" from="655923299" to="387191856#0"/>
    <trip id="411" depart="411.00" from="682401975" to="-62518623#2"/>